*SPEF "ieee 1481-1999"
*DESIGN "wrapped_scan_test"
*DATE "11:11:11 Fri 11 11, 1111"
*VENDOR "OpenRCX"
*PROGRAM "Parallel Extraction"
*VERSION "1.0"
*DESIGN_FLOW "NAME_SCOPE LOCAL" "PIN_CAP NONE"
*DIVIDER /
*DELIMITER :
*BUS_DELIMITER []
*T_UNIT 1 NS
*C_UNIT 1 PF
*R_UNIT 1 OHM
*L_UNIT 1 HENRY

*NAME_MAP
*1 active
*2 la1_data_in[0]
*3 la1_data_in[10]
*4 la1_data_in[11]
*5 la1_data_in[12]
*6 la1_data_in[13]
*7 la1_data_in[14]
*8 la1_data_in[15]
*9 la1_data_in[16]
*10 la1_data_in[17]
*11 la1_data_in[18]
*12 la1_data_in[19]
*13 la1_data_in[1]
*14 la1_data_in[20]
*15 la1_data_in[21]
*16 la1_data_in[22]
*17 la1_data_in[23]
*18 la1_data_in[24]
*19 la1_data_in[25]
*20 la1_data_in[26]
*21 la1_data_in[27]
*22 la1_data_in[28]
*23 la1_data_in[29]
*24 la1_data_in[2]
*25 la1_data_in[30]
*26 la1_data_in[31]
*27 la1_data_in[3]
*28 la1_data_in[4]
*29 la1_data_in[5]
*30 la1_data_in[6]
*31 la1_data_in[7]
*32 la1_data_in[8]
*33 la1_data_in[9]
*34 la1_data_out[0]
*35 la1_data_out[10]
*36 la1_data_out[11]
*37 la1_data_out[12]
*38 la1_data_out[13]
*39 la1_data_out[14]
*40 la1_data_out[15]
*41 la1_data_out[16]
*42 la1_data_out[17]
*43 la1_data_out[18]
*44 la1_data_out[19]
*45 la1_data_out[1]
*46 la1_data_out[20]
*47 la1_data_out[21]
*48 la1_data_out[22]
*49 la1_data_out[23]
*50 la1_data_out[24]
*51 la1_data_out[25]
*52 la1_data_out[26]
*53 la1_data_out[27]
*54 la1_data_out[28]
*55 la1_data_out[29]
*56 la1_data_out[2]
*57 la1_data_out[30]
*58 la1_data_out[31]
*59 la1_data_out[3]
*60 la1_data_out[4]
*61 la1_data_out[5]
*62 la1_data_out[6]
*63 la1_data_out[7]
*64 la1_data_out[8]
*65 la1_data_out[9]
*66 la1_oenb[0]
*67 la1_oenb[10]
*68 la1_oenb[11]
*69 la1_oenb[12]
*70 la1_oenb[13]
*71 la1_oenb[14]
*72 la1_oenb[15]
*73 la1_oenb[16]
*74 la1_oenb[17]
*75 la1_oenb[18]
*76 la1_oenb[19]
*77 la1_oenb[1]
*78 la1_oenb[20]
*79 la1_oenb[21]
*80 la1_oenb[22]
*81 la1_oenb[23]
*82 la1_oenb[24]
*83 la1_oenb[25]
*84 la1_oenb[26]
*85 la1_oenb[27]
*86 la1_oenb[28]
*87 la1_oenb[29]
*88 la1_oenb[2]
*89 la1_oenb[30]
*90 la1_oenb[31]
*91 la1_oenb[3]
*92 la1_oenb[4]
*93 la1_oenb[5]
*94 la1_oenb[6]
*95 la1_oenb[7]
*96 la1_oenb[8]
*97 la1_oenb[9]
*100 wb_clk_i
*101 _000_
*102 _001_
*103 _002_
*104 _003_
*105 _004_
*106 _005_
*107 _006_
*108 _007_
*109 _008_
*110 _009_
*111 _010_
*112 _011_
*113 _012_
*114 _013_
*115 _014_
*116 _015_
*117 _016_
*118 _017_
*119 _018_
*120 _019_
*121 _020_
*122 _021_
*123 _022_
*124 _023_
*125 _024_
*126 _025_
*127 _026_
*128 _027_
*129 _028_
*130 _029_
*131 _030_
*132 _031_
*133 _032_
*134 _033_
*135 _034_
*136 _035_
*137 _036_
*138 _037_
*139 _038_
*140 _039_
*141 _040_
*142 _041_
*143 _042_
*144 _043_
*145 _044_
*146 _045_
*147 _046_
*148 _047_
*149 _048_
*150 _049_
*151 _050_
*152 _051_
*153 _052_
*154 _053_
*155 _054_
*156 _055_
*157 _056_
*158 _057_
*159 _058_
*160 _059_
*161 _060_
*162 _061_
*163 _062_
*164 _063_
*165 _064_
*166 _065_
*167 _066_
*168 _067_
*169 _068_
*170 _069_
*171 _070_
*172 _071_
*173 _072_
*174 _073_
*175 _074_
*176 _075_
*177 _076_
*178 _077_
*179 _078_
*180 _079_
*181 _080_
*182 _081_
*183 _082_
*184 _083_
*185 _084_
*186 _085_
*187 _086_
*188 _087_
*189 _088_
*190 _089_
*191 _090_
*192 _091_
*193 _092_
*194 _093_
*195 _094_
*196 _095_
*197 _096_
*198 _097_
*199 _098_
*200 _099_
*201 _100_
*202 _101_
*203 _102_
*204 _103_
*205 _104_
*206 _105_
*207 _106_
*208 net1
*209 net10
*210 net11
*211 net12
*212 net13
*213 net14
*214 net15
*215 net16
*216 net17
*217 net18
*218 net19
*219 net2
*220 net20
*221 net21
*222 net22
*223 net23
*224 net24
*225 net25
*226 net26
*227 net27
*228 net28
*229 net29
*230 net3
*231 net30
*232 net31
*233 net32
*234 net33
*235 net34
*236 net35
*237 net36
*238 net37
*239 net38
*240 net39
*241 net4
*242 net40
*243 net41
*244 net42
*245 net43
*246 net5
*247 net6
*248 net7
*249 net8
*250 net9
*251 scan_wrapper_lesson1\.data_out
*252 scan_wrapper_lesson1\.module_data_in\[0\]
*253 scan_wrapper_lesson1\.module_data_in\[1\]
*254 scan_wrapper_lesson1\.module_data_in\[2\]
*255 scan_wrapper_lesson1\.module_data_in\[3\]
*256 scan_wrapper_lesson1\.module_data_in\[4\]
*257 scan_wrapper_lesson1\.module_data_in\[5\]
*258 scan_wrapper_lesson1\.module_data_in\[6\]
*259 scan_wrapper_lesson1\.module_data_in\[7\]
*260 scan_wrapper_lesson1\.module_data_out\[0\]
*261 scan_wrapper_lesson1\.module_data_out\[1\]
*262 scan_wrapper_lesson1\.scan_data_in\[1\]
*263 scan_wrapper_lesson1\.scan_data_in\[2\]
*264 scan_wrapper_lesson1\.scan_data_in\[3\]
*265 scan_wrapper_lesson1\.scan_data_in\[4\]
*266 scan_wrapper_lesson1\.scan_data_in\[5\]
*267 scan_wrapper_lesson1\.scan_data_in\[6\]
*268 scan_wrapper_lesson1\.scan_data_in\[7\]
*269 scan_wrapper_lesson2\.data_out
*270 scan_wrapper_lesson2\.module_data_out\[0\]
*271 scan_wrapper_lesson2\.module_data_out\[1\]
*272 scan_wrapper_lesson2\.module_data_out\[2\]
*273 scan_wrapper_lesson2\.module_data_out\[3\]
*274 scan_wrapper_lesson2\.module_data_out\[4\]
*275 scan_wrapper_lesson2\.module_data_out\[5\]
*276 scan_wrapper_lesson2\.module_data_out\[6\]
*277 scan_wrapper_lesson2\.module_data_out\[7\]
*278 scan_wrapper_lesson2\.scan_data_in\[1\]
*279 scan_wrapper_lesson2\.scan_data_in\[2\]
*280 scan_wrapper_lesson2\.scan_data_in\[3\]
*281 scan_wrapper_lesson2\.scan_data_in\[4\]
*282 scan_wrapper_lesson2\.scan_data_in\[5\]
*283 scan_wrapper_lesson2\.scan_data_in\[6\]
*284 scan_wrapper_lesson2\.scan_data_in\[7\]
*285 scan_wrapper_lesson2\.user_module\.clk
*286 scan_wrapper_lesson2\.user_module\.reset
*287 scan_wrapper_lesson3\.data_out
*288 scan_wrapper_lesson3\.module_data_out\[0\]
*289 scan_wrapper_lesson3\.module_data_out\[1\]
*290 scan_wrapper_lesson3\.module_data_out\[2\]
*291 scan_wrapper_lesson3\.module_data_out\[3\]
*292 scan_wrapper_lesson3\.module_data_out\[4\]
*293 scan_wrapper_lesson3\.module_data_out\[5\]
*294 scan_wrapper_lesson3\.module_data_out\[6\]
*295 scan_wrapper_lesson3\.module_data_out\[7\]
*296 scan_wrapper_lesson3\.scan_data_in\[1\]
*297 scan_wrapper_lesson3\.scan_data_in\[2\]
*298 scan_wrapper_lesson3\.scan_data_in\[3\]
*299 scan_wrapper_lesson3\.scan_data_in\[4\]
*300 scan_wrapper_lesson3\.scan_data_in\[5\]
*301 scan_wrapper_lesson3\.scan_data_in\[6\]
*302 scan_wrapper_lesson3\.scan_data_in\[7\]
*303 scan_wrapper_lesson3\.user_module\.clk
*304 scan_wrapper_lesson3\.user_module\.count\[0\]
*305 scan_wrapper_lesson3\.user_module\.count\[1\]
*306 scan_wrapper_lesson3\.user_module\.count\[2\]
*307 scan_wrapper_lesson3\.user_module\.count\[3\]
*308 scan_wrapper_lesson3\.user_module\.reset
*309 scan_wrapper_lesson4\.data_out
*310 scan_wrapper_lesson4\.module_data_out\[0\]
*311 scan_wrapper_lesson4\.scan_data_in\[1\]
*312 scan_wrapper_lesson4\.scan_data_in\[2\]
*313 scan_wrapper_lesson4\.scan_data_in\[3\]
*314 scan_wrapper_lesson4\.scan_data_in\[4\]
*315 scan_wrapper_lesson4\.scan_data_in\[5\]
*316 scan_wrapper_lesson4\.scan_data_in\[6\]
*317 scan_wrapper_lesson4\.scan_data_in\[7\]
*318 scan_wrapper_lesson4\.user_module\.clk
*319 scan_wrapper_lesson4\.user_module\.count\[0\]
*320 scan_wrapper_lesson4\.user_module\.count\[1\]
*321 scan_wrapper_lesson4\.user_module\.count\[2\]
*322 scan_wrapper_lesson4\.user_module\.count\[3\]
*323 scan_wrapper_lesson4\.user_module\.count\[4\]
*324 scan_wrapper_lesson4\.user_module\.reset
*325 FILLER_0_109
*326 FILLER_0_113
*327 FILLER_0_125
*328 FILLER_0_137
*329 FILLER_0_141
*330 FILLER_0_15
*331 FILLER_0_153
*332 FILLER_0_165
*333 FILLER_0_169
*334 FILLER_0_181
*335 FILLER_0_193
*336 FILLER_0_197
*337 FILLER_0_209
*338 FILLER_0_221
*339 FILLER_0_225
*340 FILLER_0_237
*341 FILLER_0_249
*342 FILLER_0_262
*343 FILLER_0_27
*344 FILLER_0_274
*345 FILLER_0_281
*346 FILLER_0_29
*347 FILLER_0_293
*348 FILLER_0_3
*349 FILLER_0_305
*350 FILLER_0_309
*351 FILLER_0_321
*352 FILLER_0_333
*353 FILLER_0_337
*354 FILLER_0_349
*355 FILLER_0_361
*356 FILLER_0_365
*357 FILLER_0_377
*358 FILLER_0_389
*359 FILLER_0_393
*360 FILLER_0_405
*361 FILLER_0_41
*362 FILLER_0_417
*363 FILLER_0_421
*364 FILLER_0_433
*365 FILLER_0_445
*366 FILLER_0_449
*367 FILLER_0_461
*368 FILLER_0_473
*369 FILLER_0_477
*370 FILLER_0_489
*371 FILLER_0_501
*372 FILLER_0_505
*373 FILLER_0_517
*374 FILLER_0_529
*375 FILLER_0_53
*376 FILLER_0_533
*377 FILLER_0_545
*378 FILLER_0_557
*379 FILLER_0_561
*380 FILLER_0_57
*381 FILLER_0_573
*382 FILLER_0_585
*383 FILLER_0_589
*384 FILLER_0_601
*385 FILLER_0_606
*386 FILLER_0_614
*387 FILLER_0_620
*388 FILLER_0_624
*389 FILLER_0_65
*390 FILLER_0_72
*391 FILLER_0_85
*392 FILLER_0_97
*393 FILLER_100_101
*394 FILLER_100_113
*395 FILLER_100_125
*396 FILLER_100_137
*397 FILLER_100_141
*398 FILLER_100_15
*399 FILLER_100_153
*400 FILLER_100_165
*401 FILLER_100_177
*402 FILLER_100_189
*403 FILLER_100_195
*404 FILLER_100_197
*405 FILLER_100_209
*406 FILLER_100_221
*407 FILLER_100_233
*408 FILLER_100_245
*409 FILLER_100_251
*410 FILLER_100_253
*411 FILLER_100_265
*412 FILLER_100_27
*413 FILLER_100_274
*414 FILLER_100_286
*415 FILLER_100_29
*416 FILLER_100_298
*417 FILLER_100_3
*418 FILLER_100_306
*419 FILLER_100_309
*420 FILLER_100_321
*421 FILLER_100_333
*422 FILLER_100_345
*423 FILLER_100_356
*424 FILLER_100_365
*425 FILLER_100_373
*426 FILLER_100_379
*427 FILLER_100_391
*428 FILLER_100_403
*429 FILLER_100_41
*430 FILLER_100_415
*431 FILLER_100_419
*432 FILLER_100_421
*433 FILLER_100_433
*434 FILLER_100_445
*435 FILLER_100_449
*436 FILLER_100_453
*437 FILLER_100_460
*438 FILLER_100_472
*439 FILLER_100_477
*440 FILLER_100_489
*441 FILLER_100_501
*442 FILLER_100_513
*443 FILLER_100_525
*444 FILLER_100_53
*445 FILLER_100_531
*446 FILLER_100_536
*447 FILLER_100_548
*448 FILLER_100_560
*449 FILLER_100_566
*450 FILLER_100_578
*451 FILLER_100_586
*452 FILLER_100_589
*453 FILLER_100_601
*454 FILLER_100_613
*455 FILLER_100_65
*456 FILLER_100_74
*457 FILLER_100_82
*458 FILLER_100_85
*459 FILLER_100_89
*460 FILLER_101_109
*461 FILLER_101_113
*462 FILLER_101_125
*463 FILLER_101_137
*464 FILLER_101_141
*465 FILLER_101_15
*466 FILLER_101_153
*467 FILLER_101_165
*468 FILLER_101_169
*469 FILLER_101_181
*470 FILLER_101_193
*471 FILLER_101_197
*472 FILLER_101_209
*473 FILLER_101_221
*474 FILLER_101_225
*475 FILLER_101_237
*476 FILLER_101_249
*477 FILLER_101_253
*478 FILLER_101_265
*479 FILLER_101_27
*480 FILLER_101_277
*481 FILLER_101_281
*482 FILLER_101_29
*483 FILLER_101_293
*484 FILLER_101_3
*485 FILLER_101_305
*486 FILLER_101_309
*487 FILLER_101_321
*488 FILLER_101_333
*489 FILLER_101_337
*490 FILLER_101_349
*491 FILLER_101_361
*492 FILLER_101_365
*493 FILLER_101_377
*494 FILLER_101_389
*495 FILLER_101_393
*496 FILLER_101_405
*497 FILLER_101_41
*498 FILLER_101_417
*499 FILLER_101_421
*500 FILLER_101_429
*501 FILLER_101_444
*502 FILLER_101_449
*503 FILLER_101_461
*504 FILLER_101_473
*505 FILLER_101_477
*506 FILLER_101_489
*507 FILLER_101_501
*508 FILLER_101_505
*509 FILLER_101_517
*510 FILLER_101_529
*511 FILLER_101_53
*512 FILLER_101_533
*513 FILLER_101_545
*514 FILLER_101_557
*515 FILLER_101_561
*516 FILLER_101_57
*517 FILLER_101_573
*518 FILLER_101_585
*519 FILLER_101_589
*520 FILLER_101_601
*521 FILLER_101_613
*522 FILLER_101_617
*523 FILLER_101_69
*524 FILLER_101_81
*525 FILLER_101_85
*526 FILLER_101_97
*527 FILLER_10_109
*528 FILLER_10_121
*529 FILLER_10_133
*530 FILLER_10_139
*531 FILLER_10_141
*532 FILLER_10_15
*533 FILLER_10_153
*534 FILLER_10_165
*535 FILLER_10_177
*536 FILLER_10_189
*537 FILLER_10_195
*538 FILLER_10_197
*539 FILLER_10_209
*540 FILLER_10_221
*541 FILLER_10_233
*542 FILLER_10_245
*543 FILLER_10_251
*544 FILLER_10_253
*545 FILLER_10_265
*546 FILLER_10_27
*547 FILLER_10_277
*548 FILLER_10_289
*549 FILLER_10_29
*550 FILLER_10_3
*551 FILLER_10_301
*552 FILLER_10_307
*553 FILLER_10_309
*554 FILLER_10_321
*555 FILLER_10_333
*556 FILLER_10_345
*557 FILLER_10_357
*558 FILLER_10_363
*559 FILLER_10_365
*560 FILLER_10_377
*561 FILLER_10_389
*562 FILLER_10_401
*563 FILLER_10_41
*564 FILLER_10_413
*565 FILLER_10_419
*566 FILLER_10_421
*567 FILLER_10_433
*568 FILLER_10_445
*569 FILLER_10_457
*570 FILLER_10_469
*571 FILLER_10_475
*572 FILLER_10_477
*573 FILLER_10_489
*574 FILLER_10_501
*575 FILLER_10_513
*576 FILLER_10_525
*577 FILLER_10_53
*578 FILLER_10_531
*579 FILLER_10_533
*580 FILLER_10_545
*581 FILLER_10_557
*582 FILLER_10_569
*583 FILLER_10_581
*584 FILLER_10_587
*585 FILLER_10_589
*586 FILLER_10_601
*587 FILLER_10_613
*588 FILLER_10_65
*589 FILLER_10_77
*590 FILLER_10_83
*591 FILLER_10_85
*592 FILLER_10_97
*593 FILLER_11_105
*594 FILLER_11_111
*595 FILLER_11_113
*596 FILLER_11_125
*597 FILLER_11_137
*598 FILLER_11_149
*599 FILLER_11_15
*600 FILLER_11_161
*601 FILLER_11_167
*602 FILLER_11_169
*603 FILLER_11_181
*604 FILLER_11_193
*605 FILLER_11_205
*606 FILLER_11_217
*607 FILLER_11_223
*608 FILLER_11_225
*609 FILLER_11_237
*610 FILLER_11_249
*611 FILLER_11_261
*612 FILLER_11_27
*613 FILLER_11_273
*614 FILLER_11_279
*615 FILLER_11_281
*616 FILLER_11_293
*617 FILLER_11_3
*618 FILLER_11_305
*619 FILLER_11_317
*620 FILLER_11_329
*621 FILLER_11_335
*622 FILLER_11_337
*623 FILLER_11_349
*624 FILLER_11_361
*625 FILLER_11_373
*626 FILLER_11_385
*627 FILLER_11_39
*628 FILLER_11_391
*629 FILLER_11_393
*630 FILLER_11_405
*631 FILLER_11_417
*632 FILLER_11_429
*633 FILLER_11_441
*634 FILLER_11_447
*635 FILLER_11_449
*636 FILLER_11_461
*637 FILLER_11_473
*638 FILLER_11_485
*639 FILLER_11_497
*640 FILLER_11_503
*641 FILLER_11_505
*642 FILLER_11_51
*643 FILLER_11_517
*644 FILLER_11_529
*645 FILLER_11_541
*646 FILLER_11_55
*647 FILLER_11_553
*648 FILLER_11_559
*649 FILLER_11_561
*650 FILLER_11_57
*651 FILLER_11_573
*652 FILLER_11_585
*653 FILLER_11_597
*654 FILLER_11_603
*655 FILLER_11_615
*656 FILLER_11_620
*657 FILLER_11_624
*658 FILLER_11_69
*659 FILLER_11_81
*660 FILLER_11_93
*661 FILLER_12_109
*662 FILLER_12_121
*663 FILLER_12_133
*664 FILLER_12_139
*665 FILLER_12_141
*666 FILLER_12_15
*667 FILLER_12_153
*668 FILLER_12_165
*669 FILLER_12_177
*670 FILLER_12_189
*671 FILLER_12_195
*672 FILLER_12_197
*673 FILLER_12_209
*674 FILLER_12_221
*675 FILLER_12_233
*676 FILLER_12_245
*677 FILLER_12_251
*678 FILLER_12_253
*679 FILLER_12_265
*680 FILLER_12_27
*681 FILLER_12_277
*682 FILLER_12_289
*683 FILLER_12_29
*684 FILLER_12_3
*685 FILLER_12_301
*686 FILLER_12_307
*687 FILLER_12_309
*688 FILLER_12_321
*689 FILLER_12_333
*690 FILLER_12_345
*691 FILLER_12_357
*692 FILLER_12_363
*693 FILLER_12_365
*694 FILLER_12_377
*695 FILLER_12_389
*696 FILLER_12_401
*697 FILLER_12_41
*698 FILLER_12_413
*699 FILLER_12_419
*700 FILLER_12_421
*701 FILLER_12_433
*702 FILLER_12_445
*703 FILLER_12_457
*704 FILLER_12_469
*705 FILLER_12_475
*706 FILLER_12_477
*707 FILLER_12_489
*708 FILLER_12_501
*709 FILLER_12_513
*710 FILLER_12_525
*711 FILLER_12_53
*712 FILLER_12_531
*713 FILLER_12_533
*714 FILLER_12_545
*715 FILLER_12_557
*716 FILLER_12_569
*717 FILLER_12_581
*718 FILLER_12_587
*719 FILLER_12_589
*720 FILLER_12_597
*721 FILLER_12_621
*722 FILLER_12_65
*723 FILLER_12_77
*724 FILLER_12_83
*725 FILLER_12_85
*726 FILLER_12_97
*727 FILLER_13_105
*728 FILLER_13_111
*729 FILLER_13_113
*730 FILLER_13_125
*731 FILLER_13_137
*732 FILLER_13_149
*733 FILLER_13_15
*734 FILLER_13_161
*735 FILLER_13_167
*736 FILLER_13_169
*737 FILLER_13_181
*738 FILLER_13_193
*739 FILLER_13_205
*740 FILLER_13_217
*741 FILLER_13_223
*742 FILLER_13_225
*743 FILLER_13_237
*744 FILLER_13_249
*745 FILLER_13_261
*746 FILLER_13_27
*747 FILLER_13_273
*748 FILLER_13_279
*749 FILLER_13_281
*750 FILLER_13_293
*751 FILLER_13_3
*752 FILLER_13_305
*753 FILLER_13_317
*754 FILLER_13_329
*755 FILLER_13_335
*756 FILLER_13_337
*757 FILLER_13_349
*758 FILLER_13_361
*759 FILLER_13_373
*760 FILLER_13_385
*761 FILLER_13_39
*762 FILLER_13_391
*763 FILLER_13_393
*764 FILLER_13_405
*765 FILLER_13_417
*766 FILLER_13_429
*767 FILLER_13_441
*768 FILLER_13_447
*769 FILLER_13_449
*770 FILLER_13_461
*771 FILLER_13_473
*772 FILLER_13_485
*773 FILLER_13_497
*774 FILLER_13_503
*775 FILLER_13_505
*776 FILLER_13_51
*777 FILLER_13_517
*778 FILLER_13_529
*779 FILLER_13_541
*780 FILLER_13_55
*781 FILLER_13_553
*782 FILLER_13_559
*783 FILLER_13_561
*784 FILLER_13_57
*785 FILLER_13_573
*786 FILLER_13_585
*787 FILLER_13_597
*788 FILLER_13_609
*789 FILLER_13_615
*790 FILLER_13_617
*791 FILLER_13_69
*792 FILLER_13_81
*793 FILLER_13_93
*794 FILLER_14_109
*795 FILLER_14_121
*796 FILLER_14_13
*797 FILLER_14_133
*798 FILLER_14_139
*799 FILLER_14_141
*800 FILLER_14_153
*801 FILLER_14_165
*802 FILLER_14_177
*803 FILLER_14_189
*804 FILLER_14_195
*805 FILLER_14_197
*806 FILLER_14_209
*807 FILLER_14_221
*808 FILLER_14_233
*809 FILLER_14_245
*810 FILLER_14_25
*811 FILLER_14_251
*812 FILLER_14_253
*813 FILLER_14_265
*814 FILLER_14_277
*815 FILLER_14_289
*816 FILLER_14_29
*817 FILLER_14_3
*818 FILLER_14_301
*819 FILLER_14_307
*820 FILLER_14_309
*821 FILLER_14_321
*822 FILLER_14_333
*823 FILLER_14_345
*824 FILLER_14_357
*825 FILLER_14_363
*826 FILLER_14_365
*827 FILLER_14_377
*828 FILLER_14_389
*829 FILLER_14_401
*830 FILLER_14_41
*831 FILLER_14_413
*832 FILLER_14_419
*833 FILLER_14_421
*834 FILLER_14_433
*835 FILLER_14_445
*836 FILLER_14_457
*837 FILLER_14_469
*838 FILLER_14_475
*839 FILLER_14_477
*840 FILLER_14_489
*841 FILLER_14_501
*842 FILLER_14_513
*843 FILLER_14_525
*844 FILLER_14_53
*845 FILLER_14_531
*846 FILLER_14_533
*847 FILLER_14_545
*848 FILLER_14_557
*849 FILLER_14_569
*850 FILLER_14_581
*851 FILLER_14_587
*852 FILLER_14_589
*853 FILLER_14_601
*854 FILLER_14_613
*855 FILLER_14_65
*856 FILLER_14_77
*857 FILLER_14_83
*858 FILLER_14_85
*859 FILLER_14_9
*860 FILLER_14_97
*861 FILLER_15_105
*862 FILLER_15_111
*863 FILLER_15_113
*864 FILLER_15_125
*865 FILLER_15_137
*866 FILLER_15_149
*867 FILLER_15_161
*868 FILLER_15_167
*869 FILLER_15_169
*870 FILLER_15_181
*871 FILLER_15_193
*872 FILLER_15_205
*873 FILLER_15_217
*874 FILLER_15_223
*875 FILLER_15_225
*876 FILLER_15_237
*877 FILLER_15_249
*878 FILLER_15_261
*879 FILLER_15_273
*880 FILLER_15_279
*881 FILLER_15_281
*882 FILLER_15_293
*883 FILLER_15_3
*884 FILLER_15_30
*885 FILLER_15_305
*886 FILLER_15_317
*887 FILLER_15_329
*888 FILLER_15_335
*889 FILLER_15_337
*890 FILLER_15_349
*891 FILLER_15_361
*892 FILLER_15_373
*893 FILLER_15_385
*894 FILLER_15_391
*895 FILLER_15_393
*896 FILLER_15_405
*897 FILLER_15_417
*898 FILLER_15_42
*899 FILLER_15_429
*900 FILLER_15_441
*901 FILLER_15_447
*902 FILLER_15_449
*903 FILLER_15_461
*904 FILLER_15_473
*905 FILLER_15_485
*906 FILLER_15_497
*907 FILLER_15_503
*908 FILLER_15_505
*909 FILLER_15_517
*910 FILLER_15_529
*911 FILLER_15_54
*912 FILLER_15_541
*913 FILLER_15_553
*914 FILLER_15_559
*915 FILLER_15_561
*916 FILLER_15_57
*917 FILLER_15_573
*918 FILLER_15_585
*919 FILLER_15_597
*920 FILLER_15_609
*921 FILLER_15_615
*922 FILLER_15_617
*923 FILLER_15_69
*924 FILLER_15_81
*925 FILLER_15_93
*926 FILLER_16_109
*927 FILLER_16_11
*928 FILLER_16_121
*929 FILLER_16_133
*930 FILLER_16_139
*931 FILLER_16_141
*932 FILLER_16_153
*933 FILLER_16_16
*934 FILLER_16_165
*935 FILLER_16_177
*936 FILLER_16_189
*937 FILLER_16_195
*938 FILLER_16_197
*939 FILLER_16_209
*940 FILLER_16_221
*941 FILLER_16_233
*942 FILLER_16_245
*943 FILLER_16_251
*944 FILLER_16_253
*945 FILLER_16_265
*946 FILLER_16_277
*947 FILLER_16_289
*948 FILLER_16_29
*949 FILLER_16_3
*950 FILLER_16_301
*951 FILLER_16_307
*952 FILLER_16_309
*953 FILLER_16_321
*954 FILLER_16_333
*955 FILLER_16_345
*956 FILLER_16_357
*957 FILLER_16_363
*958 FILLER_16_365
*959 FILLER_16_377
*960 FILLER_16_389
*961 FILLER_16_401
*962 FILLER_16_41
*963 FILLER_16_413
*964 FILLER_16_419
*965 FILLER_16_421
*966 FILLER_16_433
*967 FILLER_16_445
*968 FILLER_16_457
*969 FILLER_16_469
*970 FILLER_16_475
*971 FILLER_16_477
*972 FILLER_16_489
*973 FILLER_16_501
*974 FILLER_16_513
*975 FILLER_16_525
*976 FILLER_16_53
*977 FILLER_16_531
*978 FILLER_16_533
*979 FILLER_16_545
*980 FILLER_16_557
*981 FILLER_16_569
*982 FILLER_16_581
*983 FILLER_16_587
*984 FILLER_16_589
*985 FILLER_16_597
*986 FILLER_16_621
*987 FILLER_16_65
*988 FILLER_16_77
*989 FILLER_16_83
*990 FILLER_16_85
*991 FILLER_16_97
*992 FILLER_17_105
*993 FILLER_17_111
*994 FILLER_17_113
*995 FILLER_17_125
*996 FILLER_17_137
*997 FILLER_17_149
*998 FILLER_17_15
*999 FILLER_17_161
*1000 FILLER_17_167
*1001 FILLER_17_169
*1002 FILLER_17_181
*1003 FILLER_17_193
*1004 FILLER_17_205
*1005 FILLER_17_217
*1006 FILLER_17_223
*1007 FILLER_17_225
*1008 FILLER_17_237
*1009 FILLER_17_249
*1010 FILLER_17_261
*1011 FILLER_17_27
*1012 FILLER_17_273
*1013 FILLER_17_279
*1014 FILLER_17_281
*1015 FILLER_17_293
*1016 FILLER_17_3
*1017 FILLER_17_305
*1018 FILLER_17_317
*1019 FILLER_17_329
*1020 FILLER_17_335
*1021 FILLER_17_337
*1022 FILLER_17_349
*1023 FILLER_17_361
*1024 FILLER_17_373
*1025 FILLER_17_385
*1026 FILLER_17_39
*1027 FILLER_17_391
*1028 FILLER_17_393
*1029 FILLER_17_405
*1030 FILLER_17_417
*1031 FILLER_17_429
*1032 FILLER_17_441
*1033 FILLER_17_447
*1034 FILLER_17_449
*1035 FILLER_17_461
*1036 FILLER_17_473
*1037 FILLER_17_485
*1038 FILLER_17_497
*1039 FILLER_17_503
*1040 FILLER_17_505
*1041 FILLER_17_51
*1042 FILLER_17_517
*1043 FILLER_17_529
*1044 FILLER_17_541
*1045 FILLER_17_55
*1046 FILLER_17_553
*1047 FILLER_17_559
*1048 FILLER_17_561
*1049 FILLER_17_57
*1050 FILLER_17_573
*1051 FILLER_17_585
*1052 FILLER_17_597
*1053 FILLER_17_605
*1054 FILLER_17_610
*1055 FILLER_17_617
*1056 FILLER_17_69
*1057 FILLER_17_81
*1058 FILLER_17_93
*1059 FILLER_18_109
*1060 FILLER_18_121
*1061 FILLER_18_133
*1062 FILLER_18_139
*1063 FILLER_18_141
*1064 FILLER_18_15
*1065 FILLER_18_153
*1066 FILLER_18_165
*1067 FILLER_18_177
*1068 FILLER_18_189
*1069 FILLER_18_195
*1070 FILLER_18_197
*1071 FILLER_18_209
*1072 FILLER_18_221
*1073 FILLER_18_233
*1074 FILLER_18_245
*1075 FILLER_18_251
*1076 FILLER_18_253
*1077 FILLER_18_265
*1078 FILLER_18_27
*1079 FILLER_18_277
*1080 FILLER_18_289
*1081 FILLER_18_29
*1082 FILLER_18_3
*1083 FILLER_18_301
*1084 FILLER_18_307
*1085 FILLER_18_309
*1086 FILLER_18_321
*1087 FILLER_18_333
*1088 FILLER_18_345
*1089 FILLER_18_357
*1090 FILLER_18_363
*1091 FILLER_18_365
*1092 FILLER_18_377
*1093 FILLER_18_389
*1094 FILLER_18_401
*1095 FILLER_18_41
*1096 FILLER_18_413
*1097 FILLER_18_419
*1098 FILLER_18_421
*1099 FILLER_18_433
*1100 FILLER_18_445
*1101 FILLER_18_457
*1102 FILLER_18_469
*1103 FILLER_18_475
*1104 FILLER_18_477
*1105 FILLER_18_489
*1106 FILLER_18_501
*1107 FILLER_18_513
*1108 FILLER_18_525
*1109 FILLER_18_53
*1110 FILLER_18_531
*1111 FILLER_18_533
*1112 FILLER_18_545
*1113 FILLER_18_557
*1114 FILLER_18_569
*1115 FILLER_18_581
*1116 FILLER_18_587
*1117 FILLER_18_589
*1118 FILLER_18_601
*1119 FILLER_18_609
*1120 FILLER_18_613
*1121 FILLER_18_65
*1122 FILLER_18_77
*1123 FILLER_18_83
*1124 FILLER_18_85
*1125 FILLER_18_97
*1126 FILLER_19_105
*1127 FILLER_19_111
*1128 FILLER_19_113
*1129 FILLER_19_125
*1130 FILLER_19_137
*1131 FILLER_19_149
*1132 FILLER_19_15
*1133 FILLER_19_161
*1134 FILLER_19_167
*1135 FILLER_19_169
*1136 FILLER_19_181
*1137 FILLER_19_193
*1138 FILLER_19_205
*1139 FILLER_19_217
*1140 FILLER_19_223
*1141 FILLER_19_225
*1142 FILLER_19_237
*1143 FILLER_19_249
*1144 FILLER_19_261
*1145 FILLER_19_27
*1146 FILLER_19_273
*1147 FILLER_19_279
*1148 FILLER_19_281
*1149 FILLER_19_293
*1150 FILLER_19_3
*1151 FILLER_19_305
*1152 FILLER_19_317
*1153 FILLER_19_329
*1154 FILLER_19_335
*1155 FILLER_19_337
*1156 FILLER_19_349
*1157 FILLER_19_361
*1158 FILLER_19_373
*1159 FILLER_19_385
*1160 FILLER_19_39
*1161 FILLER_19_391
*1162 FILLER_19_393
*1163 FILLER_19_405
*1164 FILLER_19_417
*1165 FILLER_19_429
*1166 FILLER_19_441
*1167 FILLER_19_447
*1168 FILLER_19_449
*1169 FILLER_19_461
*1170 FILLER_19_473
*1171 FILLER_19_485
*1172 FILLER_19_497
*1173 FILLER_19_503
*1174 FILLER_19_505
*1175 FILLER_19_51
*1176 FILLER_19_517
*1177 FILLER_19_529
*1178 FILLER_19_541
*1179 FILLER_19_55
*1180 FILLER_19_553
*1181 FILLER_19_559
*1182 FILLER_19_561
*1183 FILLER_19_57
*1184 FILLER_19_573
*1185 FILLER_19_585
*1186 FILLER_19_597
*1187 FILLER_19_609
*1188 FILLER_19_615
*1189 FILLER_19_617
*1190 FILLER_19_69
*1191 FILLER_19_81
*1192 FILLER_19_93
*1193 FILLER_1_105
*1194 FILLER_1_111
*1195 FILLER_1_113
*1196 FILLER_1_125
*1197 FILLER_1_137
*1198 FILLER_1_148
*1199 FILLER_1_15
*1200 FILLER_1_154
*1201 FILLER_1_158
*1202 FILLER_1_166
*1203 FILLER_1_169
*1204 FILLER_1_178
*1205 FILLER_1_186
*1206 FILLER_1_190
*1207 FILLER_1_202
*1208 FILLER_1_210
*1209 FILLER_1_216
*1210 FILLER_1_225
*1211 FILLER_1_237
*1212 FILLER_1_249
*1213 FILLER_1_261
*1214 FILLER_1_27
*1215 FILLER_1_273
*1216 FILLER_1_279
*1217 FILLER_1_281
*1218 FILLER_1_293
*1219 FILLER_1_3
*1220 FILLER_1_305
*1221 FILLER_1_317
*1222 FILLER_1_329
*1223 FILLER_1_335
*1224 FILLER_1_337
*1225 FILLER_1_349
*1226 FILLER_1_36
*1227 FILLER_1_361
*1228 FILLER_1_373
*1229 FILLER_1_385
*1230 FILLER_1_391
*1231 FILLER_1_393
*1232 FILLER_1_405
*1233 FILLER_1_417
*1234 FILLER_1_429
*1235 FILLER_1_441
*1236 FILLER_1_447
*1237 FILLER_1_449
*1238 FILLER_1_461
*1239 FILLER_1_469
*1240 FILLER_1_474
*1241 FILLER_1_48
*1242 FILLER_1_486
*1243 FILLER_1_498
*1244 FILLER_1_505
*1245 FILLER_1_517
*1246 FILLER_1_529
*1247 FILLER_1_541
*1248 FILLER_1_547
*1249 FILLER_1_551
*1250 FILLER_1_559
*1251 FILLER_1_561
*1252 FILLER_1_57
*1253 FILLER_1_573
*1254 FILLER_1_579
*1255 FILLER_1_601
*1256 FILLER_1_608
*1257 FILLER_1_620
*1258 FILLER_1_624
*1259 FILLER_1_69
*1260 FILLER_1_81
*1261 FILLER_1_93
*1262 FILLER_20_109
*1263 FILLER_20_121
*1264 FILLER_20_133
*1265 FILLER_20_139
*1266 FILLER_20_141
*1267 FILLER_20_15
*1268 FILLER_20_153
*1269 FILLER_20_165
*1270 FILLER_20_177
*1271 FILLER_20_189
*1272 FILLER_20_195
*1273 FILLER_20_197
*1274 FILLER_20_209
*1275 FILLER_20_221
*1276 FILLER_20_233
*1277 FILLER_20_245
*1278 FILLER_20_251
*1279 FILLER_20_253
*1280 FILLER_20_265
*1281 FILLER_20_27
*1282 FILLER_20_277
*1283 FILLER_20_289
*1284 FILLER_20_29
*1285 FILLER_20_3
*1286 FILLER_20_301
*1287 FILLER_20_307
*1288 FILLER_20_309
*1289 FILLER_20_321
*1290 FILLER_20_333
*1291 FILLER_20_345
*1292 FILLER_20_357
*1293 FILLER_20_363
*1294 FILLER_20_365
*1295 FILLER_20_377
*1296 FILLER_20_389
*1297 FILLER_20_401
*1298 FILLER_20_41
*1299 FILLER_20_413
*1300 FILLER_20_419
*1301 FILLER_20_421
*1302 FILLER_20_433
*1303 FILLER_20_445
*1304 FILLER_20_457
*1305 FILLER_20_469
*1306 FILLER_20_475
*1307 FILLER_20_477
*1308 FILLER_20_489
*1309 FILLER_20_501
*1310 FILLER_20_513
*1311 FILLER_20_525
*1312 FILLER_20_53
*1313 FILLER_20_531
*1314 FILLER_20_533
*1315 FILLER_20_545
*1316 FILLER_20_557
*1317 FILLER_20_569
*1318 FILLER_20_581
*1319 FILLER_20_587
*1320 FILLER_20_589
*1321 FILLER_20_601
*1322 FILLER_20_613
*1323 FILLER_20_65
*1324 FILLER_20_77
*1325 FILLER_20_83
*1326 FILLER_20_85
*1327 FILLER_20_97
*1328 FILLER_21_105
*1329 FILLER_21_111
*1330 FILLER_21_113
*1331 FILLER_21_125
*1332 FILLER_21_137
*1333 FILLER_21_149
*1334 FILLER_21_15
*1335 FILLER_21_161
*1336 FILLER_21_167
*1337 FILLER_21_169
*1338 FILLER_21_181
*1339 FILLER_21_193
*1340 FILLER_21_205
*1341 FILLER_21_217
*1342 FILLER_21_223
*1343 FILLER_21_225
*1344 FILLER_21_237
*1345 FILLER_21_249
*1346 FILLER_21_261
*1347 FILLER_21_27
*1348 FILLER_21_273
*1349 FILLER_21_279
*1350 FILLER_21_281
*1351 FILLER_21_293
*1352 FILLER_21_3
*1353 FILLER_21_305
*1354 FILLER_21_317
*1355 FILLER_21_329
*1356 FILLER_21_335
*1357 FILLER_21_337
*1358 FILLER_21_349
*1359 FILLER_21_361
*1360 FILLER_21_373
*1361 FILLER_21_385
*1362 FILLER_21_39
*1363 FILLER_21_391
*1364 FILLER_21_393
*1365 FILLER_21_405
*1366 FILLER_21_417
*1367 FILLER_21_429
*1368 FILLER_21_441
*1369 FILLER_21_447
*1370 FILLER_21_449
*1371 FILLER_21_461
*1372 FILLER_21_473
*1373 FILLER_21_485
*1374 FILLER_21_497
*1375 FILLER_21_503
*1376 FILLER_21_505
*1377 FILLER_21_51
*1378 FILLER_21_517
*1379 FILLER_21_529
*1380 FILLER_21_541
*1381 FILLER_21_55
*1382 FILLER_21_553
*1383 FILLER_21_559
*1384 FILLER_21_561
*1385 FILLER_21_57
*1386 FILLER_21_573
*1387 FILLER_21_585
*1388 FILLER_21_597
*1389 FILLER_21_609
*1390 FILLER_21_615
*1391 FILLER_21_617
*1392 FILLER_21_69
*1393 FILLER_21_81
*1394 FILLER_21_93
*1395 FILLER_22_109
*1396 FILLER_22_121
*1397 FILLER_22_133
*1398 FILLER_22_139
*1399 FILLER_22_141
*1400 FILLER_22_15
*1401 FILLER_22_153
*1402 FILLER_22_165
*1403 FILLER_22_177
*1404 FILLER_22_189
*1405 FILLER_22_195
*1406 FILLER_22_197
*1407 FILLER_22_209
*1408 FILLER_22_221
*1409 FILLER_22_233
*1410 FILLER_22_245
*1411 FILLER_22_251
*1412 FILLER_22_253
*1413 FILLER_22_265
*1414 FILLER_22_27
*1415 FILLER_22_277
*1416 FILLER_22_289
*1417 FILLER_22_29
*1418 FILLER_22_3
*1419 FILLER_22_301
*1420 FILLER_22_307
*1421 FILLER_22_309
*1422 FILLER_22_321
*1423 FILLER_22_333
*1424 FILLER_22_345
*1425 FILLER_22_357
*1426 FILLER_22_363
*1427 FILLER_22_365
*1428 FILLER_22_377
*1429 FILLER_22_389
*1430 FILLER_22_401
*1431 FILLER_22_41
*1432 FILLER_22_413
*1433 FILLER_22_419
*1434 FILLER_22_421
*1435 FILLER_22_433
*1436 FILLER_22_445
*1437 FILLER_22_457
*1438 FILLER_22_469
*1439 FILLER_22_475
*1440 FILLER_22_477
*1441 FILLER_22_489
*1442 FILLER_22_501
*1443 FILLER_22_513
*1444 FILLER_22_525
*1445 FILLER_22_53
*1446 FILLER_22_531
*1447 FILLER_22_533
*1448 FILLER_22_545
*1449 FILLER_22_557
*1450 FILLER_22_569
*1451 FILLER_22_581
*1452 FILLER_22_587
*1453 FILLER_22_589
*1454 FILLER_22_601
*1455 FILLER_22_613
*1456 FILLER_22_65
*1457 FILLER_22_77
*1458 FILLER_22_83
*1459 FILLER_22_85
*1460 FILLER_22_97
*1461 FILLER_23_105
*1462 FILLER_23_111
*1463 FILLER_23_113
*1464 FILLER_23_125
*1465 FILLER_23_137
*1466 FILLER_23_149
*1467 FILLER_23_15
*1468 FILLER_23_161
*1469 FILLER_23_167
*1470 FILLER_23_169
*1471 FILLER_23_181
*1472 FILLER_23_193
*1473 FILLER_23_205
*1474 FILLER_23_217
*1475 FILLER_23_223
*1476 FILLER_23_225
*1477 FILLER_23_237
*1478 FILLER_23_249
*1479 FILLER_23_261
*1480 FILLER_23_27
*1481 FILLER_23_273
*1482 FILLER_23_279
*1483 FILLER_23_281
*1484 FILLER_23_293
*1485 FILLER_23_3
*1486 FILLER_23_305
*1487 FILLER_23_317
*1488 FILLER_23_329
*1489 FILLER_23_335
*1490 FILLER_23_337
*1491 FILLER_23_349
*1492 FILLER_23_361
*1493 FILLER_23_373
*1494 FILLER_23_385
*1495 FILLER_23_39
*1496 FILLER_23_391
*1497 FILLER_23_393
*1498 FILLER_23_405
*1499 FILLER_23_417
*1500 FILLER_23_429
*1501 FILLER_23_441
*1502 FILLER_23_447
*1503 FILLER_23_449
*1504 FILLER_23_461
*1505 FILLER_23_473
*1506 FILLER_23_485
*1507 FILLER_23_497